%CPU=0-23
%lindaworkers=:2
%Chk=LIG_Opt.chk
#n Opt B3LYP/6-31G(d)

LIG_optimization_RESP

1  1
C
N  1  r2
C  1  r3  2  a3
C  1  r4  2  a4  3  d4
C  1  r5  2  a5  3  d5
C  4  r6  1  a6  2  d6
C  1  r7  2  a7  3  d7
O  7  r8  1  a8  2  d8
C  8  r9  7  a9  1  d9
C  9  r10  8  a10  7  d10
C  8  r11  7  a11  1  d11
C  4  r12  1  a12  2  d12
C  5  r13  1  a13  2  d13
S  13  r14  5  a14  1  d14
C  2  r15  1  a15  3  d15
N  15  r16  2  a16  1  d16
C  6  r17  4  a17  1  d17
F  3  r18  1  a18  2  d18
F  6  r19  4  a19  1  d19
H  2  r20  1  a20  3  d20
H  2  r21  1  a21  3  d21
H  4  r22  1  a22  2  d22
H  5  r23  1  a23  2  d23
H  9  r24  8  a24  7  d24
H  9  r25  8  a25  7  d25
H  10  r26  9  a26  8  d26
H  10  r27  9  a27  8  d27
H  11  r28  8  a28  7  d28
H  11  r29  8  a29  7  d29
H  12  r30  4  a30  1  d30
H  13  r31  5  a31  1  d31
H  13  r32  5  a32  1  d32
H  16  r33  15  a33  2  d33
H  17  r34  6  a34  4  d34
Variables:
r2= 4.3124
r3= 1.4092
a3= 165.57
r4= 2.4480
a4=  97.10
d4= 110.21
r5= 2.5940
a5=  68.86
d5= 320.38
r6= 1.3893
a6=  90.55
d6= 194.11
r7= 1.5653
a7=  54.79
d7= 284.26
r8= 2.4893
a8= 142.44
d8= 219.51
r9= 1.4228
a9=  94.97
d9= 244.28
r10= 1.5379
a10= 109.27
d10= 327.91
r11= 1.4297
a11=  35.51
d11=  10.02
r12= 1.3927
a12=  29.47
d12=  14.77
r13= 1.5513
a13=  96.77
d13=  69.09
r14= 1.8153
a14= 113.62
d14= 277.83
r15= 1.3144
a15=  31.30
d15=  31.07
r16= 1.3180
a16= 119.16
d16=  56.07
r17= 1.3897
a17= 119.86
d17= 359.20
r18= 1.3491
a18= 120.81
d18= 291.59
r19= 1.3502
a19= 120.07
d19= 178.84
r20= 1.0175
a20=  98.48
d20= 168.65
r21= 1.0125
a21= 136.22
d21= 317.31
r22= 1.0806
a22= 149.47
d22=  12.85
r23= 1.0890
a23=  85.67
d23= 174.09
r24= 1.0905
a24= 108.82
d24= 207.37
r25= 1.0918
a25= 110.44
d25=  90.54
r26= 1.0878
a26= 110.36
d26= 178.75
r27= 1.0913
a27= 109.57
d27= 293.40
r28= 1.0884
a28= 106.80
d28= 121.73
r29= 1.0895
a29= 108.06
d29= 234.87
r30= 1.0797
a30= 116.72
d30= 180.89
r31= 1.0904
a31= 111.70
d31= 155.90
r32= 1.0910
a32= 110.22
d32=  37.43
r33= 1.0141
a33= 116.53
d33= 358.73
r34= 1.0804
a34= 119.84
d34= 180.23

